85558
  -OEChem-04052101562D

 27 27  0     0  0  0  0  0  0999 V2000
    2.6166    1.5262    0.0000 O   0  0  0  0  0  0  0  0  0  0  0  0
    6.9568    1.5262    0.0000 O   0  0  0  0  0  0  0  0  0  0  0  0
    2.7976   -0.1964    0.0000 O   0  0  0  0  0  0  0  0  0  0  0  0
    6.7757   -0.1964    0.0000 O   0  0  0  0  0  0  0  0  0  0  0  0
    4.7867    0.0127    0.0000 C   0  0  0  0  0  0  0  0  0  0  0  0
    3.9777   -0.5751    0.0000 C   0  0  0  0  0  0  0  0  0  0  0  0
    5.5957   -0.5751    0.0000 C   0  0  0  0  0  0  0  0  0  0  0  0
    4.2867   -1.5262    0.0000 C   0  0  0  0  0  0  0  0  0  0  0  0
    5.2867   -1.5262    0.0000 C   0  0  0  0  0  0  0  0  0  0  0  0
    4.1989    0.8217    0.0000 C   0  0  0  0  0  0  0  0  0  0  0  0
    5.3745    0.8217    0.0000 C   0  0  0  0  0  0  0  0  0  0  0  0
    3.2044    0.7172    0.0000 C   0  0  0  0  0  0  0  0  0  0  0  0
    6.3690    0.7172    0.0000 C   0  0  0  0  0  0  0  0  0  0  0  0
    3.6677   -0.0382    0.0000 H   0  0  0  0  0  0  0  0  0  0  0  0
    3.4113   -0.8273    0.0000 H   0  0  0  0  0  0  0  0  0  0  0  0
    6.1621   -0.8273    0.0000 H   0  0  0  0  0  0  0  0  0  0  0  0
    5.9057   -0.0382    0.0000 H   0  0  0  0  0  0  0  0  0  0  0  0
    3.6802   -1.6551    0.0000 H   0  0  0  0  0  0  0  0  0  0  0  0
    4.3515   -2.1428    0.0000 H   0  0  0  0  0  0  0  0  0  0  0  0
    5.2219   -2.1428    0.0000 H   0  0  0  0  0  0  0  0  0  0  0  0
    5.8932   -1.6551    0.0000 H   0  0  0  0  0  0  0  0  0  0  0  0
    4.7562    1.0935    0.0000 H   0  0  0  0  0  0  0  0  0  0  0  0
    4.0280    1.4177    0.0000 H   0  0  0  0  0  0  0  0  0  0  0  0
    5.5454    1.4177    0.0000 H   0  0  0  0  0  0  0  0  0  0  0  0
    4.8172    1.0935    0.0000 H   0  0  0  0  0  0  0  0  0  0  0  0
    2.0000    1.4614    0.0000 H   0  0  0  0  0  0  0  0  0  0  0  0
    7.5734    1.4614    0.0000 H   0  0  0  0  0  0  0  0  0  0  0  0
  1 12  1  0  0  0  0
  1 26  1  0  0  0  0
  2 13  1  0  0  0  0
  2 27  1  0  0  0  0
  3 12  2  0  0  0  0
  4 13  2  0  0  0  0
  5  6  1  0  0  0  0
  5  7  1  0  0  0  0
  5 10  1  0  0  0  0
  5 11  1  0  0  0  0
  6  8  1  0  0  0  0
  6 14  1  0  0  0  0
  6 15  1  0  0  0  0
  7  9  1  0  0  0  0
  7 16  1  0  0  0  0
  7 17  1  0  0  0  0
  8  9  1  0  0  0  0
  8 18  1  0  0  0  0
  8 19  1  0  0  0  0
  9 20  1  0  0  0  0
  9 21  1  0  0  0  0
 10 12  1  0  0  0  0
 10 22  1  0  0  0  0
 10 23  1  0  0  0  0
 11 13  1  0  0  0  0
 11 24  1  0  0  0  0
 11 25  1  0  0  0  0
M  END
> <PUBCHEM_COMPOUND_CID>
85558

> <PUBCHEM_COMPOUND_CANONICALIZED>
1

> <PUBCHEM_CACTVS_COMPLEXITY>
198

> <PUBCHEM_CACTVS_HBOND_ACCEPTOR>
4

> <PUBCHEM_CACTVS_HBOND_DONOR>
2

> <PUBCHEM_CACTVS_ROTATABLE_BOND>
4

> <PUBCHEM_CACTVS_SUBSKEYS>
AAADccBwOAAAAAAAAAAAAAAAAAAAAYAAAAAAAAAAAAAAAAAAAAAAGgAACAAADgCAgAAACAAAAgAIAACQCAAAAAAAAAAAAAEAAAAAABIAAAAAQAAEAAAAAAGI7iCPAAAAAAAAAAAAAAAAAAAAAAAAAAAAAA==

> <PUBCHEM_IUPAC_OPENEYE_NAME>
2-[1-(carboxymethyl)cyclopentyl]acetic acid

> <PUBCHEM_IUPAC_CAS_NAME>
2-[1-(carboxymethyl)cyclopentyl]acetic acid

> <PUBCHEM_IUPAC_NAME_MARKUP>
2-[1-(carboxymethyl)cyclopentyl]acetic acid

> <PUBCHEM_IUPAC_NAME>
2-[1-(carboxymethyl)cyclopentyl]acetic acid

> <PUBCHEM_IUPAC_SYSTEMATIC_NAME>
2-[1-(2-hydroxy-2-oxoethyl)cyclopentyl]ethanoic acid

> <PUBCHEM_IUPAC_TRADITIONAL_NAME>
2-[1-(carboxymethyl)cyclopentyl]acetic acid

> <PUBCHEM_IUPAC_INCHI>
InChI=1S/C9H14O4/c10-7(11)5-9(6-8(12)13)3-1-2-4-9/h1-6H2,(H,10,11)(H,12,13)

> <PUBCHEM_IUPAC_INCHIKEY>
FWPVKDFOUXHOKQ-UHFFFAOYSA-N

> <PUBCHEM_XLOGP3_AA>
1.3

> <PUBCHEM_EXACT_MASS>
186.089209

> <PUBCHEM_MOLECULAR_FORMULA>
C9H14O4

> <PUBCHEM_MOLECULAR_WEIGHT>
186.2

> <PUBCHEM_OPENEYE_CAN_SMILES>
C1CCC(C1)(CC(=O)O)CC(=O)O

> <PUBCHEM_OPENEYE_ISO_SMILES>
C1CCC(C1)(CC(=O)O)CC(=O)O

> <PUBCHEM_CACTVS_TPSA>
74.6

> <PUBCHEM_MONOISOTOPIC_WEIGHT>
186.089209

> <PUBCHEM_TOTAL_CHARGE>
0

> <PUBCHEM_HEAVY_ATOM_COUNT>
13

> <PUBCHEM_ATOM_DEF_STEREO_COUNT>
0

> <PUBCHEM_ATOM_UDEF_STEREO_COUNT>
0

> <PUBCHEM_BOND_DEF_STEREO_COUNT>
0

> <PUBCHEM_BOND_UDEF_STEREO_COUNT>
0

> <PUBCHEM_ISOTOPIC_ATOM_COUNT>
0

> <PUBCHEM_COMPONENT_COUNT>
1

> <PUBCHEM_CACTVS_TAUTO_COUNT>
-1

> <PUBCHEM_COORDINATE_TYPE>
1
5
255

$$$$
