65673
  -OEChem-04052101542D

 29 32  0     0  0  0  0  0  0999 V2000
    2.0000    0.9247    0.0000 F   0  0  0  0  0  0  0  0  0  0  0  0
    9.0094    0.9247    0.0000 F   0  0  0  0  0  0  0  0  0  0  0  0
    7.2648   -0.2666    0.0000 O   0  0  0  0  0  0  0  0  0  0  0  0
    4.4169   -2.3357    0.0000 O   0  0  0  0  0  0  0  0  0  0  0  0
    4.6957   -0.5756    0.0000 N   0  0  0  0  0  0  0  0  0  0  0  0
    6.0047   -1.5267    0.0000 N   0  0  0  0  0  0  0  0  0  0  0  0
    5.5047    0.0121    0.0000 C   0  0  0  0  0  0  0  0  0  0  0  0
    4.6957    0.5999    0.0000 C   0  0  0  0  0  0  0  0  0  0  0  0
    6.3137    0.5999    0.0000 C   0  0  0  0  0  0  0  0  0  0  0  0
    5.0047    1.5510    0.0000 C   0  0  0  0  0  0  0  0  0  0  0  0
    6.0047    1.5510    0.0000 C   0  0  0  0  0  0  0  0  0  0  0  0
    6.3137   -0.5756    0.0000 C   0  0  0  0  0  0  0  0  0  0  0  0
    3.6803    0.3677    0.0000 C   0  0  0  0  0  0  0  0  0  0  0  0
    7.3291    0.3677    0.0000 C   0  0  0  0  0  0  0  0  0  0  0  0
    5.0047   -1.5267    0.0000 C   0  0  0  0  0  0  0  0  0  0  0  0
    4.3197    2.3357    0.0000 C   0  0  0  0  0  0  0  0  0  0  0  0
    6.6897    2.3357    0.0000 C   0  0  0  0  0  0  0  0  0  0  0  0
    2.9773    1.1364    0.0000 C   0  0  0  0  0  0  0  0  0  0  0  0
    8.0321    1.1364    0.0000 C   0  0  0  0  0  0  0  0  0  0  0  0
    3.2992    2.1270    0.0000 C   0  0  0  0  0  0  0  0  0  0  0  0
    7.7102    2.1270    0.0000 C   0  0  0  0  0  0  0  0  0  0  0  0
    4.1060   -0.3841    0.0000 H   0  0  0  0  0  0  0  0  0  0  0  0
    3.4955   -0.2242    0.0000 H   0  0  0  0  0  0  0  0  0  0  0  0
    7.5139   -0.2242    0.0000 H   0  0  0  0  0  0  0  0  0  0  0  0
    6.3691   -2.0283    0.0000 H   0  0  0  0  0  0  0  0  0  0  0  0
    4.5181    2.9231    0.0000 H   0  0  0  0  0  0  0  0  0  0  0  0
    6.4913    2.9231    0.0000 H   0  0  0  0  0  0  0  0  0  0  0  0
    2.8861    2.5894    0.0000 H   0  0  0  0  0  0  0  0  0  0  0  0
    8.1233    2.5894    0.0000 H   0  0  0  0  0  0  0  0  0  0  0  0
  1 18  1  0  0  0  0
  2 19  1  0  0  0  0
  3 12  2  0  0  0  0
  4 15  2  0  0  0  0
  5  7  1  0  0  0  0
  5 15  1  0  0  0  0
  5 22  1  0  0  0  0
  6 12  1  0  0  0  0
  6 15  1  0  0  0  0
  6 25  1  0  0  0  0
  7  8  1  0  0  0  0
  7  9  1  0  0  0  0
  7 12  1  0  0  0  0
  8 10  2  0  0  0  0
  8 13  1  0  0  0  0
  9 11  2  0  0  0  0
  9 14  1  0  0  0  0
 10 11  1  0  0  0  0
 10 16  1  0  0  0  0
 11 17  1  0  0  0  0
 13 18  2  0  0  0  0
 13 23  1  0  0  0  0
 14 19  2  0  0  0  0
 14 24  1  0  0  0  0
 16 20  2  0  0  0  0
 16 26  1  0  0  0  0
 17 21  2  0  0  0  0
 17 27  1  0  0  0  0
 18 20  1  0  0  0  0
 19 21  1  0  0  0  0
 20 28  1  0  0  0  0
 21 29  1  0  0  0  0
M  END
> <PUBCHEM_COMPOUND_CID>
65673

> <PUBCHEM_COMPOUND_CANONICALIZED>
1

> <PUBCHEM_CACTVS_COMPLEXITY>
472

> <PUBCHEM_CACTVS_HBOND_ACCEPTOR>
4

> <PUBCHEM_CACTVS_HBOND_DONOR>
2

> <PUBCHEM_CACTVS_ROTATABLE_BOND>
0

> <PUBCHEM_CACTVS_SUBSKEYS>
AAADccBzMYAAAAAAAAAAAAAAAAAAAeIAAAAwYAAAAAAAAGABQAAAHwAQAAAADIiBmAgxAILAAACIAiFSEACCAAAgAAAIiAGABIiIYDKAlTGUIAhohSIIiAcYiMCOgAAAAAAQAAAAAAAAACAAASAACQAAAA==

> <PUBCHEM_IUPAC_OPENEYE_NAME>
2,7-difluorospiro[fluorene-9,5'-imidazolidine]-2',4'-dione

> <PUBCHEM_IUPAC_CAS_NAME>
2,7-difluorospiro[fluorene-9,5'-imidazolidine]-2',4'-dione

> <PUBCHEM_IUPAC_NAME_MARKUP>
2,7-difluorospiro[fluorene-9,5&apos;-imidazolidine]-2&apos;,4&apos;-dione

> <PUBCHEM_IUPAC_NAME>
2,7-difluorospiro[fluorene-9,5'-imidazolidine]-2',4'-dione

> <PUBCHEM_IUPAC_SYSTEMATIC_NAME>
2,7-bis(fluoranyl)spiro[fluorene-9,5'-imidazolidine]-2',4'-dione

> <PUBCHEM_IUPAC_TRADITIONAL_NAME>
2,7-difluorospiro[fluorene-9,5'-imidazolidine]-2',4'-quinone

> <PUBCHEM_IUPAC_INCHI>
InChI=1S/C15H8F2N2O2/c16-7-1-3-9-10-4-2-8(17)6-12(10)15(11(9)5-7)13(20)18-14(21)19-15/h1-6H,(H2,18,19,20,21)

> <PUBCHEM_IUPAC_INCHIKEY>
QCCHBHSAIQIQGO-UHFFFAOYSA-N

> <PUBCHEM_XLOGP3_AA>
2

> <PUBCHEM_EXACT_MASS>
286.055384

> <PUBCHEM_MOLECULAR_FORMULA>
C15H8F2N2O2

> <PUBCHEM_MOLECULAR_WEIGHT>
286.23

> <PUBCHEM_OPENEYE_CAN_SMILES>
C1=CC2=C(C=C1F)C3(C4=C2C=CC(=C4)F)C(=O)NC(=O)N3

> <PUBCHEM_OPENEYE_ISO_SMILES>
C1=CC2=C(C=C1F)C3(C4=C2C=CC(=C4)F)C(=O)NC(=O)N3

> <PUBCHEM_CACTVS_TPSA>
58.2

> <PUBCHEM_MONOISOTOPIC_WEIGHT>
286.055384

> <PUBCHEM_TOTAL_CHARGE>
0

> <PUBCHEM_HEAVY_ATOM_COUNT>
21

> <PUBCHEM_ATOM_DEF_STEREO_COUNT>
0

> <PUBCHEM_ATOM_UDEF_STEREO_COUNT>
0

> <PUBCHEM_BOND_DEF_STEREO_COUNT>
0

> <PUBCHEM_BOND_UDEF_STEREO_COUNT>
0

> <PUBCHEM_ISOTOPIC_ATOM_COUNT>
0

> <PUBCHEM_COMPONENT_COUNT>
1

> <PUBCHEM_CACTVS_TAUTO_COUNT>
-1

> <PUBCHEM_COORDINATE_TYPE>
1
5
255

> <PUBCHEM_BONDANNOTATIONS>
10  16  8
11  17  8
13  18  8
14  19  8
16  20  8
17  21  8
18  20  8
19  21  8
8  10  8
8  13  8
9  11  8
9  14  8

$$$$
